This is a test file to learn Webhook.
New line.
